
#======================================================================
# CRYSTAL DATA
#----------------------------------------------------------------------
data_VESTA_phase_1

_chemical_name_common                  'Ba O3 Ti                              '
_cell_length_a                         4.035570
_cell_length_b                         4.035569
_cell_length_c                         4.037276
_cell_angle_alpha                      90.000008
_cell_angle_beta                       90.000000
_cell_angle_gamma                      90.000000
_cell_volume                           65.750357
_space_group_name_H-M_alt              'P 1'
_space_group_IT_number                 1

loop_
_space_group_symop_operation_xyz
   'x, y, z'

loop_
   _atom_site_label
   _atom_site_occupancy
   _atom_site_fract_x
   _atom_site_fract_y
   _atom_site_fract_z
   _atom_site_adp_type
   _atom_site_U_iso_or_equiv
   _atom_site_type_symbol
   Ba1        1.0     0.000000     0.000000     0.000000    Uiso  ? Ba
   Ti1        1.0     0.500000     0.500000     0.500000    Uiso  ? Ti
   O1         1.0     0.500000     0.500000    -0.000000    Uiso  ? O
   O2         1.0     0.500000    -0.000000     0.500000    Uiso  ? O
   O3         1.0    -0.000000     0.500000     0.500000    Uiso  ? O
